// Generated for: spectre
// Generated on: Nov 30 22:16:33 2019
// Design library name: ele462
// Design cell name: mirror_16_fp_1v
// Design view name: schematic
simulator lang=spectre
global 0
include "/n/homeserver2/eehome2a/PUBLIC_HTML/nverma/cadenceSetup_6.1.7/gpdk090_v4.4/libs.oa22/gpdk090/../../models/spectre/gpdk090.scs" section=NN

// Library name: ele462
// Cell name: mirror_adder_2_fp
// View name: schematic
subckt mirror_adder_2_fp A B Ci Gnd Vdd nCo nS
    PM11 (net54 Ci nS Vdd) gpdk090_pmos1v w=((3*120n) / (1)) l=100n as=(((3*120n) / (1)) < 239.5n) ? ((((100n > (((120n) - 0) + 120n) ? 100n : (((120n) - 0) + 120n)) * 240n) + (((3*120n) / (1)) * 100n)) + (floor(((1) - 1) / 2.0) * (((((120n) - 0) + 120n) * 240n) + (((3*120n) / (1)) * 200n))) + ((((1) / 2) - floor((1) / 2) == 0) ? (((100n > (((120n) - 0) + 120n) ? 100n : (((120n) - 0) + 120n)) * 240n) + (((3*120n) / (1)) * 100n)) : 0)) / 1 : (((200n > (((120n) - 0) + 160n) ? 200n : (((120n) - 0) + 160n)) * ((3*120n) / (1))) + (floor(((1) - 1) / 2.0) * ((((120n) - 0) + 200n) * ((3*120n) / (1)))) + ((((1) / 2) - floor((1) / 2) == 0) ? ((200n > (((120n) - 0) + 160n) ? 200n : (((120n) - 0) + 160n)) * ((3*120n) / (1))) : 0)) / 1 \
         ad=(((3*120n) / (1)) < 239.5n) ? ((floor((1) / 2.0) * (((((120n) - 0) + 120n) * 240n) + (((3*120n) / (1)) * 200n))) + ((((1) / 2) - floor((1) / 2) != 0) ? (((100n > (((120n) - 0) + 120n) ? 100n : (((120n) - 0) + 120n)) * 240n) + (((3*120n) / (1)) * 100n)) : 0)) / 1 : ((floor((1) / 2.0) * ((((120n) - 0) + 200n) * ((3*120n) / (1)))) + ((((1) / 2) - floor((1) / 2) != 0) ? ((200n > (((120n) - 0) + 160n) ? 200n : (((120n) - 0) + 160n)) * ((3*120n) / (1))) : 0)) / 1 \
         ps=(((3*120n) / (1)) < 239.5n) ? (((2 * (100n > (((120n) - 0) + 120n) ? 100n : (((120n) - 0) + 120n))) + 680n) + (floor(((1) - 1) / 2.0) * ((2 * (((120n) - 0) + 120n)) + 880n)) + ((((1) / 2) - floor((1) / 2) == 0) ? ((2 * (100n > (((120n) - 0) + 120n) ? 100n : (((120n) - 0) + 120n))) + 680n) : 0)) / 1 : (((2 * (200n > (((120n) - 0) + 160n) ? 200n : (((120n) - 0) + 160n))) + (2 * ((3*120n) / (1)))) + (floor(((1) - 1) / 2.0) * ((2 * (((120n) - 0) + 200n)) + (2 * ((3*120n) / (1))))) + ((((1) / 2) - floor((1) / 2) == 0) ? ((2 * (200n > (((120n) - 0) + 160n) ? 200n : (((120n) - 0) + 160n))) + (2 * ((3*120n) / (1)))) : 0)) / 1 \
         pd=(((3*120n) / (1)) < 239.5n) ? ((floor((1) / 2.0) * ((2 * (((120n) - 0) + 120n)) + 880n)) + ((((1) / 2) - floor((1) / 2) != 0) ? ((2 * (100n > (((120n) - 0) + 120n) ? 100n : (((120n) - 0) + 120n))) + 680n) : 0)) / 1 : ((floor((1) / 2.0) * ((2 * (((120n) - 0) + 200n)) + (2 * ((3*120n) / (1))))) + ((((1) / 2) - floor((1) / 2) != 0) ? ((2 * (200n > (((120n) - 0) + 160n) ? 200n : (((120n) - 0) + 160n))) + (2 * ((3*120n) / (1)))) : 0)) / 1 \
         m=(1)*(1) simM=(1)*(1)
    PM10 (net49 B net54 Vdd) gpdk090_pmos1v w=((3*120n) / (1)) l=100n as=(((3*120n) / (1)) < 239.5n) ? ((((100n > (((120n) - 0) + 120n) ? 100n : (((120n) - 0) + 120n)) * 240n) + (((3*120n) / (1)) * 100n)) + (floor(((1) - 1) / 2.0) * (((((120n) - 0) + 120n) * 240n) + (((3*120n) / (1)) * 200n))) + ((((1) / 2) - floor((1) / 2) == 0) ? (((100n > (((120n) - 0) + 120n) ? 100n : (((120n) - 0) + 120n)) * 240n) + (((3*120n) / (1)) * 100n)) : 0)) / 1 : (((200n > (((120n) - 0) + 160n) ? 200n : (((120n) - 0) + 160n)) * ((3*120n) / (1))) + (floor(((1) - 1) / 2.0) * ((((120n) - 0) + 200n) * ((3*120n) / (1)))) + ((((1) / 2) - floor((1) / 2) == 0) ? ((200n > (((120n) - 0) + 160n) ? 200n : (((120n) - 0) + 160n)) * ((3*120n) / (1))) : 0)) / 1 \
         ad=(((3*120n) / (1)) < 239.5n) ? ((floor((1) / 2.0) * (((((120n) - 0) + 120n) * 240n) + (((3*120n) / (1)) * 200n))) + ((((1) / 2) - floor((1) / 2) != 0) ? (((100n > (((120n) - 0) + 120n) ? 100n : (((120n) - 0) + 120n)) * 240n) + (((3*120n) / (1)) * 100n)) : 0)) / 1 : ((floor((1) / 2.0) * ((((120n) - 0) + 200n) * ((3*120n) / (1)))) + ((((1) / 2) - floor((1) / 2) != 0) ? ((200n > (((120n) - 0) + 160n) ? 200n : (((120n) - 0) + 160n)) * ((3*120n) / (1))) : 0)) / 1 \
         ps=(((3*120n) / (1)) < 239.5n) ? (((2 * (100n > (((120n) - 0) + 120n) ? 100n : (((120n) - 0) + 120n))) + 680n) + (floor(((1) - 1) / 2.0) * ((2 * (((120n) - 0) + 120n)) + 880n)) + ((((1) / 2) - floor((1) / 2) == 0) ? ((2 * (100n > (((120n) - 0) + 120n) ? 100n : (((120n) - 0) + 120n))) + 680n) : 0)) / 1 : (((2 * (200n > (((120n) - 0) + 160n) ? 200n : (((120n) - 0) + 160n))) + (2 * ((3*120n) / (1)))) + (floor(((1) - 1) / 2.0) * ((2 * (((120n) - 0) + 200n)) + (2 * ((3*120n) / (1))))) + ((((1) / 2) - floor((1) / 2) == 0) ? ((2 * (200n > (((120n) - 0) + 160n) ? 200n : (((120n) - 0) + 160n))) + (2 * ((3*120n) / (1)))) : 0)) / 1 \
         pd=(((3*120n) / (1)) < 239.5n) ? ((floor((1) / 2.0) * ((2 * (((120n) - 0) + 120n)) + 880n)) + ((((1) / 2) - floor((1) / 2) != 0) ? ((2 * (100n > (((120n) - 0) + 120n) ? 100n : (((120n) - 0) + 120n))) + 680n) : 0)) / 1 : ((floor((1) / 2.0) * ((2 * (((120n) - 0) + 200n)) + (2 * ((3*120n) / (1))))) + ((((1) / 2) - floor((1) / 2) != 0) ? ((2 * (200n > (((120n) - 0) + 160n) ? 200n : (((120n) - 0) + 160n))) + (2 * ((3*120n) / (1)))) : 0)) / 1 \
         m=(1)*(1) simM=(1)*(1)
    PM9 (Vdd A net49 Vdd) gpdk090_pmos1v w=((3*120n) / (1)) l=100n as=(((3*120n) / (1)) < 239.5n) ? ((((100n > (((120n) - 0) + 120n) ? 100n : (((120n) - 0) + 120n)) * 240n) + (((3*120n) / (1)) * 100n)) + (floor(((1) - 1) / 2.0) * (((((120n) - 0) + 120n) * 240n) + (((3*120n) / (1)) * 200n))) + ((((1) / 2) - floor((1) / 2) == 0) ? (((100n > (((120n) - 0) + 120n) ? 100n : (((120n) - 0) + 120n)) * 240n) + (((3*120n) / (1)) * 100n)) : 0)) / 1 : (((200n > (((120n) - 0) + 160n) ? 200n : (((120n) - 0) + 160n)) * ((3*120n) / (1))) + (floor(((1) - 1) / 2.0) * ((((120n) - 0) + 200n) * ((3*120n) / (1)))) + ((((1) / 2) - floor((1) / 2) == 0) ? ((200n > (((120n) - 0) + 160n) ? 200n : (((120n) - 0) + 160n)) * ((3*120n) / (1))) : 0)) / 1 \
         ad=(((3*120n) / (1)) < 239.5n) ? ((floor((1) / 2.0) * (((((120n) - 0) + 120n) * 240n) + (((3*120n) / (1)) * 200n))) + ((((1) / 2) - floor((1) / 2) != 0) ? (((100n > (((120n) - 0) + 120n) ? 100n : (((120n) - 0) + 120n)) * 240n) + (((3*120n) / (1)) * 100n)) : 0)) / 1 : ((floor((1) / 2.0) * ((((120n) - 0) + 200n) * ((3*120n) / (1)))) + ((((1) / 2) - floor((1) / 2) != 0) ? ((200n > (((120n) - 0) + 160n) ? 200n : (((120n) - 0) + 160n)) * ((3*120n) / (1))) : 0)) / 1 \
         ps=(((3*120n) / (1)) < 239.5n) ? (((2 * (100n > (((120n) - 0) + 120n) ? 100n : (((120n) - 0) + 120n))) + 680n) + (floor(((1) - 1) / 2.0) * ((2 * (((120n) - 0) + 120n)) + 880n)) + ((((1) / 2) - floor((1) / 2) == 0) ? ((2 * (100n > (((120n) - 0) + 120n) ? 100n : (((120n) - 0) + 120n))) + 680n) : 0)) / 1 : (((2 * (200n > (((120n) - 0) + 160n) ? 200n : (((120n) - 0) + 160n))) + (2 * ((3*120n) / (1)))) + (floor(((1) - 1) / 2.0) * ((2 * (((120n) - 0) + 200n)) + (2 * ((3*120n) / (1))))) + ((((1) / 2) - floor((1) / 2) == 0) ? ((2 * (200n > (((120n) - 0) + 160n) ? 200n : (((120n) - 0) + 160n))) + (2 * ((3*120n) / (1)))) : 0)) / 1 \
         pd=(((3*120n) / (1)) < 239.5n) ? ((floor((1) / 2.0) * ((2 * (((120n) - 0) + 120n)) + 880n)) + ((((1) / 2) - floor((1) / 2) != 0) ? ((2 * (100n > (((120n) - 0) + 120n) ? 100n : (((120n) - 0) + 120n))) + 680n) : 0)) / 1 : ((floor((1) / 2.0) * ((2 * (((120n) - 0) + 200n)) + (2 * ((3*120n) / (1))))) + ((((1) / 2) - floor((1) / 2) != 0) ? ((2 * (200n > (((120n) - 0) + 160n) ? 200n : (((120n) - 0) + 160n))) + (2 * ((3*120n) / (1)))) : 0)) / 1 \
         m=(1)*(1) simM=(1)*(1)
    PM8 (nS nCo net36 Vdd) gpdk090_pmos1v w=((3*120n) / (1)) l=100n as=(((3*120n) / (1)) < 239.5n) ? ((((100n > (((120n) - 0) + 120n) ? 100n : (((120n) - 0) + 120n)) * 240n) + (((3*120n) / (1)) * 100n)) + (floor(((1) - 1) / 2.0) * (((((120n) - 0) + 120n) * 240n) + (((3*120n) / (1)) * 200n))) + ((((1) / 2) - floor((1) / 2) == 0) ? (((100n > (((120n) - 0) + 120n) ? 100n : (((120n) - 0) + 120n)) * 240n) + (((3*120n) / (1)) * 100n)) : 0)) / 1 : (((200n > (((120n) - 0) + 160n) ? 200n : (((120n) - 0) + 160n)) * ((3*120n) / (1))) + (floor(((1) - 1) / 2.0) * ((((120n) - 0) + 200n) * ((3*120n) / (1)))) + ((((1) / 2) - floor((1) / 2) == 0) ? ((200n > (((120n) - 0) + 160n) ? 200n : (((120n) - 0) + 160n)) * ((3*120n) / (1))) : 0)) / 1 \
         ad=(((3*120n) / (1)) < 239.5n) ? ((floor((1) / 2.0) * (((((120n) - 0) + 120n) * 240n) + (((3*120n) / (1)) * 200n))) + ((((1) / 2) - floor((1) / 2) != 0) ? (((100n > (((120n) - 0) + 120n) ? 100n : (((120n) - 0) + 120n)) * 240n) + (((3*120n) / (1)) * 100n)) : 0)) / 1 : ((floor((1) / 2.0) * ((((120n) - 0) + 200n) * ((3*120n) / (1)))) + ((((1) / 2) - floor((1) / 2) != 0) ? ((200n > (((120n) - 0) + 160n) ? 200n : (((120n) - 0) + 160n)) * ((3*120n) / (1))) : 0)) / 1 \
         ps=(((3*120n) / (1)) < 239.5n) ? (((2 * (100n > (((120n) - 0) + 120n) ? 100n : (((120n) - 0) + 120n))) + 680n) + (floor(((1) - 1) / 2.0) * ((2 * (((120n) - 0) + 120n)) + 880n)) + ((((1) / 2) - floor((1) / 2) == 0) ? ((2 * (100n > (((120n) - 0) + 120n) ? 100n : (((120n) - 0) + 120n))) + 680n) : 0)) / 1 : (((2 * (200n > (((120n) - 0) + 160n) ? 200n : (((120n) - 0) + 160n))) + (2 * ((3*120n) / (1)))) + (floor(((1) - 1) / 2.0) * ((2 * (((120n) - 0) + 200n)) + (2 * ((3*120n) / (1))))) + ((((1) / 2) - floor((1) / 2) == 0) ? ((2 * (200n > (((120n) - 0) + 160n) ? 200n : (((120n) - 0) + 160n))) + (2 * ((3*120n) / (1)))) : 0)) / 1 \
         pd=(((3*120n) / (1)) < 239.5n) ? ((floor((1) / 2.0) * ((2 * (((120n) - 0) + 120n)) + 880n)) + ((((1) / 2) - floor((1) / 2) != 0) ? ((2 * (100n > (((120n) - 0) + 120n) ? 100n : (((120n) - 0) + 120n))) + 680n) : 0)) / 1 : ((floor((1) / 2.0) * ((2 * (((120n) - 0) + 200n)) + (2 * ((3*120n) / (1))))) + ((((1) / 2) - floor((1) / 2) != 0) ? ((2 * (200n > (((120n) - 0) + 160n) ? 200n : (((120n) - 0) + 160n))) + (2 * ((3*120n) / (1)))) : 0)) / 1 \
         m=(1)*(1) simM=(1)*(1)
    PM7 (net36 Ci Vdd Vdd) gpdk090_pmos1v w=((3*120n) / (1)) l=100n as=(((3*120n) / (1)) < 239.5n) ? ((((100n > (((120n) - 0) + 120n) ? 100n : (((120n) - 0) + 120n)) * 240n) + (((3*120n) / (1)) * 100n)) + (floor(((1) - 1) / 2.0) * (((((120n) - 0) + 120n) * 240n) + (((3*120n) / (1)) * 200n))) + ((((1) / 2) - floor((1) / 2) == 0) ? (((100n > (((120n) - 0) + 120n) ? 100n : (((120n) - 0) + 120n)) * 240n) + (((3*120n) / (1)) * 100n)) : 0)) / 1 : (((200n > (((120n) - 0) + 160n) ? 200n : (((120n) - 0) + 160n)) * ((3*120n) / (1))) + (floor(((1) - 1) / 2.0) * ((((120n) - 0) + 200n) * ((3*120n) / (1)))) + ((((1) / 2) - floor((1) / 2) == 0) ? ((200n > (((120n) - 0) + 160n) ? 200n : (((120n) - 0) + 160n)) * ((3*120n) / (1))) : 0)) / 1 \
         ad=(((3*120n) / (1)) < 239.5n) ? ((floor((1) / 2.0) * (((((120n) - 0) + 120n) * 240n) + (((3*120n) / (1)) * 200n))) + ((((1) / 2) - floor((1) / 2) != 0) ? (((100n > (((120n) - 0) + 120n) ? 100n : (((120n) - 0) + 120n)) * 240n) + (((3*120n) / (1)) * 100n)) : 0)) / 1 : ((floor((1) / 2.0) * ((((120n) - 0) + 200n) * ((3*120n) / (1)))) + ((((1) / 2) - floor((1) / 2) != 0) ? ((200n > (((120n) - 0) + 160n) ? 200n : (((120n) - 0) + 160n)) * ((3*120n) / (1))) : 0)) / 1 \
         ps=(((3*120n) / (1)) < 239.5n) ? (((2 * (100n > (((120n) - 0) + 120n) ? 100n : (((120n) - 0) + 120n))) + 680n) + (floor(((1) - 1) / 2.0) * ((2 * (((120n) - 0) + 120n)) + 880n)) + ((((1) / 2) - floor((1) / 2) == 0) ? ((2 * (100n > (((120n) - 0) + 120n) ? 100n : (((120n) - 0) + 120n))) + 680n) : 0)) / 1 : (((2 * (200n > (((120n) - 0) + 160n) ? 200n : (((120n) - 0) + 160n))) + (2 * ((3*120n) / (1)))) + (floor(((1) - 1) / 2.0) * ((2 * (((120n) - 0) + 200n)) + (2 * ((3*120n) / (1))))) + ((((1) / 2) - floor((1) / 2) == 0) ? ((2 * (200n > (((120n) - 0) + 160n) ? 200n : (((120n) - 0) + 160n))) + (2 * ((3*120n) / (1)))) : 0)) / 1 \
         pd=(((3*120n) / (1)) < 239.5n) ? ((floor((1) / 2.0) * ((2 * (((120n) - 0) + 120n)) + 880n)) + ((((1) / 2) - floor((1) / 2) != 0) ? ((2 * (100n > (((120n) - 0) + 120n) ? 100n : (((120n) - 0) + 120n))) + 680n) : 0)) / 1 : ((floor((1) / 2.0) * ((2 * (((120n) - 0) + 200n)) + (2 * ((3*120n) / (1))))) + ((((1) / 2) - floor((1) / 2) != 0) ? ((2 * (200n > (((120n) - 0) + 160n) ? 200n : (((120n) - 0) + 160n))) + (2 * ((3*120n) / (1)))) : 0)) / 1 \
         m=(1)*(1) simM=(1)*(1)
    PM6 (net36 B Vdd Vdd) gpdk090_pmos1v w=((3*120n) / (1)) l=100n as=(((3*120n) / (1)) < 239.5n) ? ((((100n > (((120n) - 0) + 120n) ? 100n : (((120n) - 0) + 120n)) * 240n) + (((3*120n) / (1)) * 100n)) + (floor(((1) - 1) / 2.0) * (((((120n) - 0) + 120n) * 240n) + (((3*120n) / (1)) * 200n))) + ((((1) / 2) - floor((1) / 2) == 0) ? (((100n > (((120n) - 0) + 120n) ? 100n : (((120n) - 0) + 120n)) * 240n) + (((3*120n) / (1)) * 100n)) : 0)) / 1 : (((200n > (((120n) - 0) + 160n) ? 200n : (((120n) - 0) + 160n)) * ((3*120n) / (1))) + (floor(((1) - 1) / 2.0) * ((((120n) - 0) + 200n) * ((3*120n) / (1)))) + ((((1) / 2) - floor((1) / 2) == 0) ? ((200n > (((120n) - 0) + 160n) ? 200n : (((120n) - 0) + 160n)) * ((3*120n) / (1))) : 0)) / 1 \
         ad=(((3*120n) / (1)) < 239.5n) ? ((floor((1) / 2.0) * (((((120n) - 0) + 120n) * 240n) + (((3*120n) / (1)) * 200n))) + ((((1) / 2) - floor((1) / 2) != 0) ? (((100n > (((120n) - 0) + 120n) ? 100n : (((120n) - 0) + 120n)) * 240n) + (((3*120n) / (1)) * 100n)) : 0)) / 1 : ((floor((1) / 2.0) * ((((120n) - 0) + 200n) * ((3*120n) / (1)))) + ((((1) / 2) - floor((1) / 2) != 0) ? ((200n > (((120n) - 0) + 160n) ? 200n : (((120n) - 0) + 160n)) * ((3*120n) / (1))) : 0)) / 1 \
         ps=(((3*120n) / (1)) < 239.5n) ? (((2 * (100n > (((120n) - 0) + 120n) ? 100n : (((120n) - 0) + 120n))) + 680n) + (floor(((1) - 1) / 2.0) * ((2 * (((120n) - 0) + 120n)) + 880n)) + ((((1) / 2) - floor((1) / 2) == 0) ? ((2 * (100n > (((120n) - 0) + 120n) ? 100n : (((120n) - 0) + 120n))) + 680n) : 0)) / 1 : (((2 * (200n > (((120n) - 0) + 160n) ? 200n : (((120n) - 0) + 160n))) + (2 * ((3*120n) / (1)))) + (floor(((1) - 1) / 2.0) * ((2 * (((120n) - 0) + 200n)) + (2 * ((3*120n) / (1))))) + ((((1) / 2) - floor((1) / 2) == 0) ? ((2 * (200n > (((120n) - 0) + 160n) ? 200n : (((120n) - 0) + 160n))) + (2 * ((3*120n) / (1)))) : 0)) / 1 \
         pd=(((3*120n) / (1)) < 239.5n) ? ((floor((1) / 2.0) * ((2 * (((120n) - 0) + 120n)) + 880n)) + ((((1) / 2) - floor((1) / 2) != 0) ? ((2 * (100n > (((120n) - 0) + 120n) ? 100n : (((120n) - 0) + 120n))) + 680n) : 0)) / 1 : ((floor((1) / 2.0) * ((2 * (((120n) - 0) + 200n)) + (2 * ((3*120n) / (1))))) + ((((1) / 2) - floor((1) / 2) != 0) ? ((2 * (200n > (((120n) - 0) + 160n) ? 200n : (((120n) - 0) + 160n))) + (2 * ((3*120n) / (1)))) : 0)) / 1 \
         m=(1)*(1) simM=(1)*(1)
    PM5 (net36 A Vdd Vdd) gpdk090_pmos1v w=((3*120n) / (1)) l=100n as=(((3*120n) / (1)) < 239.5n) ? ((((100n > (((120n) - 0) + 120n) ? 100n : (((120n) - 0) + 120n)) * 240n) + (((3*120n) / (1)) * 100n)) + (floor(((1) - 1) / 2.0) * (((((120n) - 0) + 120n) * 240n) + (((3*120n) / (1)) * 200n))) + ((((1) / 2) - floor((1) / 2) == 0) ? (((100n > (((120n) - 0) + 120n) ? 100n : (((120n) - 0) + 120n)) * 240n) + (((3*120n) / (1)) * 100n)) : 0)) / 1 : (((200n > (((120n) - 0) + 160n) ? 200n : (((120n) - 0) + 160n)) * ((3*120n) / (1))) + (floor(((1) - 1) / 2.0) * ((((120n) - 0) + 200n) * ((3*120n) / (1)))) + ((((1) / 2) - floor((1) / 2) == 0) ? ((200n > (((120n) - 0) + 160n) ? 200n : (((120n) - 0) + 160n)) * ((3*120n) / (1))) : 0)) / 1 \
         ad=(((3*120n) / (1)) < 239.5n) ? ((floor((1) / 2.0) * (((((120n) - 0) + 120n) * 240n) + (((3*120n) / (1)) * 200n))) + ((((1) / 2) - floor((1) / 2) != 0) ? (((100n > (((120n) - 0) + 120n) ? 100n : (((120n) - 0) + 120n)) * 240n) + (((3*120n) / (1)) * 100n)) : 0)) / 1 : ((floor((1) / 2.0) * ((((120n) - 0) + 200n) * ((3*120n) / (1)))) + ((((1) / 2) - floor((1) / 2) != 0) ? ((200n > (((120n) - 0) + 160n) ? 200n : (((120n) - 0) + 160n)) * ((3*120n) / (1))) : 0)) / 1 \
         ps=(((3*120n) / (1)) < 239.5n) ? (((2 * (100n > (((120n) - 0) + 120n) ? 100n : (((120n) - 0) + 120n))) + 680n) + (floor(((1) - 1) / 2.0) * ((2 * (((120n) - 0) + 120n)) + 880n)) + ((((1) / 2) - floor((1) / 2) == 0) ? ((2 * (100n > (((120n) - 0) + 120n) ? 100n : (((120n) - 0) + 120n))) + 680n) : 0)) / 1 : (((2 * (200n > (((120n) - 0) + 160n) ? 200n : (((120n) - 0) + 160n))) + (2 * ((3*120n) / (1)))) + (floor(((1) - 1) / 2.0) * ((2 * (((120n) - 0) + 200n)) + (2 * ((3*120n) / (1))))) + ((((1) / 2) - floor((1) / 2) == 0) ? ((2 * (200n > (((120n) - 0) + 160n) ? 200n : (((120n) - 0) + 160n))) + (2 * ((3*120n) / (1)))) : 0)) / 1 \
         pd=(((3*120n) / (1)) < 239.5n) ? ((floor((1) / 2.0) * ((2 * (((120n) - 0) + 120n)) + 880n)) + ((((1) / 2) - floor((1) / 2) != 0) ? ((2 * (100n > (((120n) - 0) + 120n) ? 100n : (((120n) - 0) + 120n))) + 680n) : 0)) / 1 : ((floor((1) / 2.0) * ((2 * (((120n) - 0) + 200n)) + (2 * ((3*120n) / (1))))) + ((((1) / 2) - floor((1) / 2) != 0) ? ((2 * (200n > (((120n) - 0) + 160n) ? 200n : (((120n) - 0) + 160n))) + (2 * ((3*120n) / (1)))) : 0)) / 1 \
         m=(1)*(1) simM=(1)*(1)
    PM4 (nCo A net52 Vdd) gpdk090_pmos1v w=((3*120n) / (1)) l=100n as=(((3*120n) / (1)) < 239.5n) ? ((((100n > (((120n) - 0) + 120n) ? 100n : (((120n) - 0) + 120n)) * 240n) + (((3*120n) / (1)) * 100n)) + (floor(((1) - 1) / 2.0) * (((((120n) - 0) + 120n) * 240n) + (((3*120n) / (1)) * 200n))) + ((((1) / 2) - floor((1) / 2) == 0) ? (((100n > (((120n) - 0) + 120n) ? 100n : (((120n) - 0) + 120n)) * 240n) + (((3*120n) / (1)) * 100n)) : 0)) / 1 : (((200n > (((120n) - 0) + 160n) ? 200n : (((120n) - 0) + 160n)) * ((3*120n) / (1))) + (floor(((1) - 1) / 2.0) * ((((120n) - 0) + 200n) * ((3*120n) / (1)))) + ((((1) / 2) - floor((1) / 2) == 0) ? ((200n > (((120n) - 0) + 160n) ? 200n : (((120n) - 0) + 160n)) * ((3*120n) / (1))) : 0)) / 1 \
         ad=(((3*120n) / (1)) < 239.5n) ? ((floor((1) / 2.0) * (((((120n) - 0) + 120n) * 240n) + (((3*120n) / (1)) * 200n))) + ((((1) / 2) - floor((1) / 2) != 0) ? (((100n > (((120n) - 0) + 120n) ? 100n : (((120n) - 0) + 120n)) * 240n) + (((3*120n) / (1)) * 100n)) : 0)) / 1 : ((floor((1) / 2.0) * ((((120n) - 0) + 200n) * ((3*120n) / (1)))) + ((((1) / 2) - floor((1) / 2) != 0) ? ((200n > (((120n) - 0) + 160n) ? 200n : (((120n) - 0) + 160n)) * ((3*120n) / (1))) : 0)) / 1 \
         ps=(((3*120n) / (1)) < 239.5n) ? (((2 * (100n > (((120n) - 0) + 120n) ? 100n : (((120n) - 0) + 120n))) + 680n) + (floor(((1) - 1) / 2.0) * ((2 * (((120n) - 0) + 120n)) + 880n)) + ((((1) / 2) - floor((1) / 2) == 0) ? ((2 * (100n > (((120n) - 0) + 120n) ? 100n : (((120n) - 0) + 120n))) + 680n) : 0)) / 1 : (((2 * (200n > (((120n) - 0) + 160n) ? 200n : (((120n) - 0) + 160n))) + (2 * ((3*120n) / (1)))) + (floor(((1) - 1) / 2.0) * ((2 * (((120n) - 0) + 200n)) + (2 * ((3*120n) / (1))))) + ((((1) / 2) - floor((1) / 2) == 0) ? ((2 * (200n > (((120n) - 0) + 160n) ? 200n : (((120n) - 0) + 160n))) + (2 * ((3*120n) / (1)))) : 0)) / 1 \
         pd=(((3*120n) / (1)) < 239.5n) ? ((floor((1) / 2.0) * ((2 * (((120n) - 0) + 120n)) + 880n)) + ((((1) / 2) - floor((1) / 2) != 0) ? ((2 * (100n > (((120n) - 0) + 120n) ? 100n : (((120n) - 0) + 120n))) + 680n) : 0)) / 1 : ((floor((1) / 2.0) * ((2 * (((120n) - 0) + 200n)) + (2 * ((3*120n) / (1))))) + ((((1) / 2) - floor((1) / 2) != 0) ? ((2 * (200n > (((120n) - 0) + 160n) ? 200n : (((120n) - 0) + 160n))) + (2 * ((3*120n) / (1)))) : 0)) / 1 \
         m=(1)*(1) simM=(1)*(1)
    PM3 (net52 B Vdd Vdd) gpdk090_pmos1v w=((3*120n) / (1)) l=100n as=(((3*120n) / (1)) < 239.5n) ? ((((100n > (((120n) - 0) + 120n) ? 100n : (((120n) - 0) + 120n)) * 240n) + (((3*120n) / (1)) * 100n)) + (floor(((1) - 1) / 2.0) * (((((120n) - 0) + 120n) * 240n) + (((3*120n) / (1)) * 200n))) + ((((1) / 2) - floor((1) / 2) == 0) ? (((100n > (((120n) - 0) + 120n) ? 100n : (((120n) - 0) + 120n)) * 240n) + (((3*120n) / (1)) * 100n)) : 0)) / 1 : (((200n > (((120n) - 0) + 160n) ? 200n : (((120n) - 0) + 160n)) * ((3*120n) / (1))) + (floor(((1) - 1) / 2.0) * ((((120n) - 0) + 200n) * ((3*120n) / (1)))) + ((((1) / 2) - floor((1) / 2) == 0) ? ((200n > (((120n) - 0) + 160n) ? 200n : (((120n) - 0) + 160n)) * ((3*120n) / (1))) : 0)) / 1 \
         ad=(((3*120n) / (1)) < 239.5n) ? ((floor((1) / 2.0) * (((((120n) - 0) + 120n) * 240n) + (((3*120n) / (1)) * 200n))) + ((((1) / 2) - floor((1) / 2) != 0) ? (((100n > (((120n) - 0) + 120n) ? 100n : (((120n) - 0) + 120n)) * 240n) + (((3*120n) / (1)) * 100n)) : 0)) / 1 : ((floor((1) / 2.0) * ((((120n) - 0) + 200n) * ((3*120n) / (1)))) + ((((1) / 2) - floor((1) / 2) != 0) ? ((200n > (((120n) - 0) + 160n) ? 200n : (((120n) - 0) + 160n)) * ((3*120n) / (1))) : 0)) / 1 \
         ps=(((3*120n) / (1)) < 239.5n) ? (((2 * (100n > (((120n) - 0) + 120n) ? 100n : (((120n) - 0) + 120n))) + 680n) + (floor(((1) - 1) / 2.0) * ((2 * (((120n) - 0) + 120n)) + 880n)) + ((((1) / 2) - floor((1) / 2) == 0) ? ((2 * (100n > (((120n) - 0) + 120n) ? 100n : (((120n) - 0) + 120n))) + 680n) : 0)) / 1 : (((2 * (200n > (((120n) - 0) + 160n) ? 200n : (((120n) - 0) + 160n))) + (2 * ((3*120n) / (1)))) + (floor(((1) - 1) / 2.0) * ((2 * (((120n) - 0) + 200n)) + (2 * ((3*120n) / (1))))) + ((((1) / 2) - floor((1) / 2) == 0) ? ((2 * (200n > (((120n) - 0) + 160n) ? 200n : (((120n) - 0) + 160n))) + (2 * ((3*120n) / (1)))) : 0)) / 1 \
         pd=(((3*120n) / (1)) < 239.5n) ? ((floor((1) / 2.0) * ((2 * (((120n) - 0) + 120n)) + 880n)) + ((((1) / 2) - floor((1) / 2) != 0) ? ((2 * (100n > (((120n) - 0) + 120n) ? 100n : (((120n) - 0) + 120n))) + 680n) : 0)) / 1 : ((floor((1) / 2.0) * ((2 * (((120n) - 0) + 200n)) + (2 * ((3*120n) / (1))))) + ((((1) / 2) - floor((1) / 2) != 0) ? ((2 * (200n > (((120n) - 0) + 160n) ? 200n : (((120n) - 0) + 160n))) + (2 * ((3*120n) / (1)))) : 0)) / 1 \
         m=(1)*(1) simM=(1)*(1)
    PM2 (nCo Ci net24 Vdd) gpdk090_pmos1v w=((3*120n) / (1)) l=100n as=(((3*120n) / (1)) < 239.5n) ? ((((100n > (((120n) - 0) + 120n) ? 100n : (((120n) - 0) + 120n)) * 240n) + (((3*120n) / (1)) * 100n)) + (floor(((1) - 1) / 2.0) * (((((120n) - 0) + 120n) * 240n) + (((3*120n) / (1)) * 200n))) + ((((1) / 2) - floor((1) / 2) == 0) ? (((100n > (((120n) - 0) + 120n) ? 100n : (((120n) - 0) + 120n)) * 240n) + (((3*120n) / (1)) * 100n)) : 0)) / 1 : (((200n > (((120n) - 0) + 160n) ? 200n : (((120n) - 0) + 160n)) * ((3*120n) / (1))) + (floor(((1) - 1) / 2.0) * ((((120n) - 0) + 200n) * ((3*120n) / (1)))) + ((((1) / 2) - floor((1) / 2) == 0) ? ((200n > (((120n) - 0) + 160n) ? 200n : (((120n) - 0) + 160n)) * ((3*120n) / (1))) : 0)) / 1 \
         ad=(((3*120n) / (1)) < 239.5n) ? ((floor((1) / 2.0) * (((((120n) - 0) + 120n) * 240n) + (((3*120n) / (1)) * 200n))) + ((((1) / 2) - floor((1) / 2) != 0) ? (((100n > (((120n) - 0) + 120n) ? 100n : (((120n) - 0) + 120n)) * 240n) + (((3*120n) / (1)) * 100n)) : 0)) / 1 : ((floor((1) / 2.0) * ((((120n) - 0) + 200n) * ((3*120n) / (1)))) + ((((1) / 2) - floor((1) / 2) != 0) ? ((200n > (((120n) - 0) + 160n) ? 200n : (((120n) - 0) + 160n)) * ((3*120n) / (1))) : 0)) / 1 \
         ps=(((3*120n) / (1)) < 239.5n) ? (((2 * (100n > (((120n) - 0) + 120n) ? 100n : (((120n) - 0) + 120n))) + 680n) + (floor(((1) - 1) / 2.0) * ((2 * (((120n) - 0) + 120n)) + 880n)) + ((((1) / 2) - floor((1) / 2) == 0) ? ((2 * (100n > (((120n) - 0) + 120n) ? 100n : (((120n) - 0) + 120n))) + 680n) : 0)) / 1 : (((2 * (200n > (((120n) - 0) + 160n) ? 200n : (((120n) - 0) + 160n))) + (2 * ((3*120n) / (1)))) + (floor(((1) - 1) / 2.0) * ((2 * (((120n) - 0) + 200n)) + (2 * ((3*120n) / (1))))) + ((((1) / 2) - floor((1) / 2) == 0) ? ((2 * (200n > (((120n) - 0) + 160n) ? 200n : (((120n) - 0) + 160n))) + (2 * ((3*120n) / (1)))) : 0)) / 1 \
         pd=(((3*120n) / (1)) < 239.5n) ? ((floor((1) / 2.0) * ((2 * (((120n) - 0) + 120n)) + 880n)) + ((((1) / 2) - floor((1) / 2) != 0) ? ((2 * (100n > (((120n) - 0) + 120n) ? 100n : (((120n) - 0) + 120n))) + 680n) : 0)) / 1 : ((floor((1) / 2.0) * ((2 * (((120n) - 0) + 200n)) + (2 * ((3*120n) / (1))))) + ((((1) / 2) - floor((1) / 2) != 0) ? ((2 * (200n > (((120n) - 0) + 160n) ? 200n : (((120n) - 0) + 160n))) + (2 * ((3*120n) / (1)))) : 0)) / 1 \
         m=(1)*(1) simM=(1)*(1)
    PM1 (net24 B Vdd Vdd) gpdk090_pmos1v w=((3*120n) / (1)) l=100n as=(((3*120n) / (1)) < 239.5n) ? ((((100n > (((120n) - 0) + 120n) ? 100n : (((120n) - 0) + 120n)) * 240n) + (((3*120n) / (1)) * 100n)) + (floor(((1) - 1) / 2.0) * (((((120n) - 0) + 120n) * 240n) + (((3*120n) / (1)) * 200n))) + ((((1) / 2) - floor((1) / 2) == 0) ? (((100n > (((120n) - 0) + 120n) ? 100n : (((120n) - 0) + 120n)) * 240n) + (((3*120n) / (1)) * 100n)) : 0)) / 1 : (((200n > (((120n) - 0) + 160n) ? 200n : (((120n) - 0) + 160n)) * ((3*120n) / (1))) + (floor(((1) - 1) / 2.0) * ((((120n) - 0) + 200n) * ((3*120n) / (1)))) + ((((1) / 2) - floor((1) / 2) == 0) ? ((200n > (((120n) - 0) + 160n) ? 200n : (((120n) - 0) + 160n)) * ((3*120n) / (1))) : 0)) / 1 \
         ad=(((3*120n) / (1)) < 239.5n) ? ((floor((1) / 2.0) * (((((120n) - 0) + 120n) * 240n) + (((3*120n) / (1)) * 200n))) + ((((1) / 2) - floor((1) / 2) != 0) ? (((100n > (((120n) - 0) + 120n) ? 100n : (((120n) - 0) + 120n)) * 240n) + (((3*120n) / (1)) * 100n)) : 0)) / 1 : ((floor((1) / 2.0) * ((((120n) - 0) + 200n) * ((3*120n) / (1)))) + ((((1) / 2) - floor((1) / 2) != 0) ? ((200n > (((120n) - 0) + 160n) ? 200n : (((120n) - 0) + 160n)) * ((3*120n) / (1))) : 0)) / 1 \
         ps=(((3*120n) / (1)) < 239.5n) ? (((2 * (100n > (((120n) - 0) + 120n) ? 100n : (((120n) - 0) + 120n))) + 680n) + (floor(((1) - 1) / 2.0) * ((2 * (((120n) - 0) + 120n)) + 880n)) + ((((1) / 2) - floor((1) / 2) == 0) ? ((2 * (100n > (((120n) - 0) + 120n) ? 100n : (((120n) - 0) + 120n))) + 680n) : 0)) / 1 : (((2 * (200n > (((120n) - 0) + 160n) ? 200n : (((120n) - 0) + 160n))) + (2 * ((3*120n) / (1)))) + (floor(((1) - 1) / 2.0) * ((2 * (((120n) - 0) + 200n)) + (2 * ((3*120n) / (1))))) + ((((1) / 2) - floor((1) / 2) == 0) ? ((2 * (200n > (((120n) - 0) + 160n) ? 200n : (((120n) - 0) + 160n))) + (2 * ((3*120n) / (1)))) : 0)) / 1 \
         pd=(((3*120n) / (1)) < 239.5n) ? ((floor((1) / 2.0) * ((2 * (((120n) - 0) + 120n)) + 880n)) + ((((1) / 2) - floor((1) / 2) != 0) ? ((2 * (100n > (((120n) - 0) + 120n) ? 100n : (((120n) - 0) + 120n))) + 680n) : 0)) / 1 : ((floor((1) / 2.0) * ((2 * (((120n) - 0) + 200n)) + (2 * ((3*120n) / (1))))) + ((((1) / 2) - floor((1) / 2) != 0) ? ((2 * (200n > (((120n) - 0) + 160n) ? 200n : (((120n) - 0) + 160n))) + (2 * ((3*120n) / (1)))) : 0)) / 1 \
         m=(1)*(1) simM=(1)*(1)
    PM0 (net24 A Vdd Vdd) gpdk090_pmos1v w=((3*120n) / (1)) l=100n as=(((3*120n) / (1)) < 239.5n) ? ((((100n > (((120n) - 0) + 120n) ? 100n : (((120n) - 0) + 120n)) * 240n) + (((3*120n) / (1)) * 100n)) + (floor(((1) - 1) / 2.0) * (((((120n) - 0) + 120n) * 240n) + (((3*120n) / (1)) * 200n))) + ((((1) / 2) - floor((1) / 2) == 0) ? (((100n > (((120n) - 0) + 120n) ? 100n : (((120n) - 0) + 120n)) * 240n) + (((3*120n) / (1)) * 100n)) : 0)) / 1 : (((200n > (((120n) - 0) + 160n) ? 200n : (((120n) - 0) + 160n)) * ((3*120n) / (1))) + (floor(((1) - 1) / 2.0) * ((((120n) - 0) + 200n) * ((3*120n) / (1)))) + ((((1) / 2) - floor((1) / 2) == 0) ? ((200n > (((120n) - 0) + 160n) ? 200n : (((120n) - 0) + 160n)) * ((3*120n) / (1))) : 0)) / 1 \
         ad=(((3*120n) / (1)) < 239.5n) ? ((floor((1) / 2.0) * (((((120n) - 0) + 120n) * 240n) + (((3*120n) / (1)) * 200n))) + ((((1) / 2) - floor((1) / 2) != 0) ? (((100n > (((120n) - 0) + 120n) ? 100n : (((120n) - 0) + 120n)) * 240n) + (((3*120n) / (1)) * 100n)) : 0)) / 1 : ((floor((1) / 2.0) * ((((120n) - 0) + 200n) * ((3*120n) / (1)))) + ((((1) / 2) - floor((1) / 2) != 0) ? ((200n > (((120n) - 0) + 160n) ? 200n : (((120n) - 0) + 160n)) * ((3*120n) / (1))) : 0)) / 1 \
         ps=(((3*120n) / (1)) < 239.5n) ? (((2 * (100n > (((120n) - 0) + 120n) ? 100n : (((120n) - 0) + 120n))) + 680n) + (floor(((1) - 1) / 2.0) * ((2 * (((120n) - 0) + 120n)) + 880n)) + ((((1) / 2) - floor((1) / 2) == 0) ? ((2 * (100n > (((120n) - 0) + 120n) ? 100n : (((120n) - 0) + 120n))) + 680n) : 0)) / 1 : (((2 * (200n > (((120n) - 0) + 160n) ? 200n : (((120n) - 0) + 160n))) + (2 * ((3*120n) / (1)))) + (floor(((1) - 1) / 2.0) * ((2 * (((120n) - 0) + 200n)) + (2 * ((3*120n) / (1))))) + ((((1) / 2) - floor((1) / 2) == 0) ? ((2 * (200n > (((120n) - 0) + 160n) ? 200n : (((120n) - 0) + 160n))) + (2 * ((3*120n) / (1)))) : 0)) / 1 \
         pd=(((3*120n) / (1)) < 239.5n) ? ((floor((1) / 2.0) * ((2 * (((120n) - 0) + 120n)) + 880n)) + ((((1) / 2) - floor((1) / 2) != 0) ? ((2 * (100n > (((120n) - 0) + 120n) ? 100n : (((120n) - 0) + 120n))) + 680n) : 0)) / 1 : ((floor((1) / 2.0) * ((2 * (((120n) - 0) + 200n)) + (2 * ((3*120n) / (1))))) + ((((1) / 2) - floor((1) / 2) != 0) ? ((2 * (200n > (((120n) - 0) + 160n) ? 200n : (((120n) - 0) + 160n))) + (2 * ((3*120n) / (1)))) : 0)) / 1 \
         m=(1)*(1) simM=(1)*(1)
    NM11 (Gnd B net51 Gnd) gpdk090_nmos1v w=(120n) l=100n as=69.6f \
        ad=69.6f ps=1.16u pd=1.16u m=(1)*(1) simM=(1)*(1)
    NM10 (net51 A net50 Gnd) gpdk090_nmos1v w=(120n) l=100n as=69.6f \
        ad=69.6f ps=1.16u pd=1.16u m=(1)*(1) simM=(1)*(1)
    NM9 (net50 Ci nS Gnd) gpdk090_nmos1v w=(120n) l=100n as=69.6f ad=69.6f \
        ps=1.16u pd=1.16u m=(1)*(1) simM=(1)*(1)
    NM8 (net33 Ci Gnd Gnd) gpdk090_nmos1v w=(120n) l=100n as=69.6f \
        ad=69.6f ps=1.16u pd=1.16u m=(1)*(1) simM=(1)*(1)
    NM7 (net33 A Gnd Gnd) gpdk090_nmos1v w=(120n) l=100n as=69.6f ad=69.6f \
        ps=1.16u pd=1.16u m=(1)*(1) simM=(1)*(1)
    NM6 (net33 B Gnd Gnd) gpdk090_nmos1v w=(120n) l=100n as=69.6f ad=69.6f \
        ps=1.16u pd=1.16u m=(1)*(1) simM=(1)*(1)
    NM5 (nS nCo net33 Gnd) gpdk090_nmos1v w=(120n) l=100n as=69.6f \
        ad=69.6f ps=1.16u pd=1.16u m=(1)*(1) simM=(1)*(1)
    NM4 (net53 B Gnd Gnd) gpdk090_nmos1v w=(120n) l=100n as=69.6f ad=69.6f \
        ps=1.16u pd=1.16u m=(1)*(1) simM=(1)*(1)
    NM3 (nCo A net53 Gnd) gpdk090_nmos1v w=(120n) l=100n as=69.6f ad=69.6f \
        ps=1.16u pd=1.16u m=(1)*(1) simM=(1)*(1)
    NM2 (net22 B Gnd Gnd) gpdk090_nmos1v w=(120n) l=100n as=69.6f ad=69.6f \
        ps=1.16u pd=1.16u m=(1)*(1) simM=(1)*(1)
    NM1 (net22 A Gnd Gnd) gpdk090_nmos1v w=(120n) l=100n as=69.6f ad=69.6f \
        ps=1.16u pd=1.16u m=(1)*(1) simM=(1)*(1)
    NM0 (nCo Ci net22 Gnd) gpdk090_nmos1v w=(120n) l=100n as=69.6f \